Displayed atoms
                    3D
 Schrodinger Suite 2022-4.
 22 23  0  0  1  0            999 V2000
    1.3063   -0.0248    0.0121 C   0  0  0  0  0  0
    0.6183    1.2173    0.0394 N   0  0  0  0  0  0
   -0.7938    1.3613    0.0491 C   0  0  0  0  0  0
   -1.4844    0.0843    0.0280 C   0  0  0  0  0  0
   -0.8465   -1.0808    0.0025 C   0  0  0  0  0  0
    0.5262   -1.2079   -0.0067 N   0  0  0  0  0  0
    2.5377   -0.0771    0.0050 O   0  0  0  0  0  0
   -1.3680    2.4510    0.0729 O   0  0  0  0  0  0
    1.2310   -2.4593   -0.0343 C   0  0  0  0  0  0
    1.4433    2.4063    0.0581 C   0  0  0  0  0  0
   -1.8184   -2.0630   -0.0115 N   0  0  0  0  0  0
   -2.8365   -0.1623    0.0300 N   0  0  0  0  0  0
   -3.0294   -1.4859    0.0056 C   0  0  0  0  0  0
   -4.1057   -2.0634   -0.0002 O   0  0  0  0  0  0
   -1.6378   -3.0535   -0.0314 H   0  0  0  0  0  0
    0.5032   -3.2695   -0.0462 H   0  0  0  0  0  0
    1.8386   -2.4712   -0.9411 H   0  0  0  0  0  0
    1.8476   -2.5059    0.8654 H   0  0  0  0  0  0
   -3.5390    0.5606    0.0474 H   0  0  0  0  0  0
    0.8340    3.3098    0.0785 H   0  0  0  0  0  0
    2.0634    2.3542    0.9547 H   0  0  0  0  0  0
    2.0544    2.3888   -0.8460 H   0  0  0  0  0  0
  1  2  1  0  0  0
  1  6  1  0  0  0
  1  7  2  0  0  0
  2  3  1  0  0  0
  2 10  1  0  0  0
  3  4  1  0  0  0
  3  8  2  0  0  0
  4  5  2  0  0  0
  4 12  1  0  0  0
  5  6  1  0  0  0
  5 11  1  0  0  0
  6  9  1  0  0  0
  9 16  1  0  0  0
  9 17  1  0  0  0
  9 18  1  0  0  0
 10 20  1  0  0  0
 10 21  1  0  0  0
 10 22  1  0  0  0
 11 13  1  0  0  0
 11 15  1  0  0  0
 12 13  1  0  0  0
 12 19  1  0  0  0
 13 14  2  0  0  0
M  END
$$$$
