Displayed atoms
                    3D
 Schrodinger Suite 2022-4.
 21 22  0  0  1  0            999 V2000
    1.2497   -0.0383    0.0121 C   0  0  0  0  0  0
    0.5806    1.1447    0.0382 N   0  0  0  0  0  0
   -0.7536    1.3250    0.0482 C   0  0  0  0  0  0
   -1.5078    0.0728    0.0279 C   0  0  0  0  0  0
   -0.9064   -1.1418    0.0016 C   0  0  0  0  0  0
    0.5133   -1.1940   -0.0064 N   0  0  0  0  0  0
    2.4792   -0.0371    0.0061 O   0  0  0  0  0  0
   -1.2891    2.4308    0.0721 O   0  0  0  0  0  0
    1.1869   -2.4930   -0.0348 C   0  0  0  0  0  0
    1.1484    1.9744    0.0513 H   0  0  0  0  0  0
   -1.8505   -2.1651   -0.0133 N   0  0  0  0  0  0
   -2.8813   -0.1428    0.0306 N   0  0  0  0  0  0
   -3.0008   -1.4867    0.0054 C   0  0  0  0  0  0
   -3.9514    0.8366    0.0548 C   0  0  0  0  0  0
   -3.9596   -1.9857    0.0006 H   0  0  0  0  0  0
   -4.9217    0.3390    0.0501 H   0  0  0  0  0  0
   -3.8718    1.4484    0.9540 H   0  0  0  0  0  0
   -3.8807    1.4824   -0.8211 H   0  0  0  0  0  0
    0.4842   -3.3262   -0.0474 H   0  0  0  0  0  0
    1.8152   -2.5771   -0.9223 H   0  0  0  0  0  0
    1.8239   -2.6111    0.8427 H   0  0  0  0  0  0
  1  2  1  0  0  0
  1  6  1  0  0  0
  1  7  2  0  0  0
  2  3  1  0  0  0
  2 10  1  0  0  0
  3  4  1  0  0  0
  3  8  2  0  0  0
  4  5  2  0  0  0
  4 12  1  0  0  0
  5  6  1  0  0  0
  5 11  1  0  0  0
  6  9  1  0  0  0
  9 19  1  0  0  0
  9 20  1  0  0  0
  9 21  1  0  0  0
 11 13  2  0  0  0
 12 13  1  0  0  0
 12 14  1  0  0  0
 13 15  1  0  0  0
 14 16  1  0  0  0
 14 17  1  0  0  0
 14 18  1  0  0  0
M  END
$$$$
